
  ACD/Labs04281711512D

101113  0  0  1  0  0  0  0  0  1 V2000
   29.9325   -4.3504    0.0000 O   0  0  0  0  0  0  0  0  0  0  0  0
   27.6644   -1.5245    0.0000 O   0  0  0  0  0  0  0  0  0  0  0  0
   25.5449   -4.4992    0.0000 O   0  0  0  0  0  0  0  0  0  0  0  0
   11.1550  -12.0102    0.0000 O   0  0  0  0  0  0  0  0  0  0  0  0
    8.8124   -9.4074    0.0000 O   0  0  0  0  0  0  0  0  0  0  0  0
   33.1675   -2.7516    0.0000 O   0  0  0  0  0  0  0  0  0  0  0  0
   22.0125   -3.6811    0.0000 O   0  0  0  0  0  0  0  0  0  0  0  0
   13.3116   -9.1471    0.0000 O   0  0  0  0  0  0  0  0  0  0  0  0
   22.0497   -7.2879    0.0000 O   0  0  0  0  0  0  0  0  0  0  0  0
    6.6558  -12.2333    0.0000 O   0  0  0  0  0  0  0  0  0  0  0  0
   16.5837  -10.8575    0.0000 O   0  0  0  0  0  0  0  0  0  0  0  0
   18.1083   -7.6226    0.0000 O   0  0  0  0  0  0  0  0  0  0  0  0
   34.6176   -2.6772    0.0000 O   0  0  0  0  0  0  0  0  0  0  0  0
    8.8868  -13.3860    0.0000 O   0  0  0  0  0  0  0  0  0  0  0  0
   32.0520   -0.5949    0.0000 O   0  0  0  0  0  0  0  0  0  0  0  0
   19.5956   -3.7183    0.0000 O   0  0  0  0  0  0  0  0  0  0  0  0
   37.1833   -5.0569    0.0000 O   0  0  0  0  0  0  0  0  0  0  0  0
    2.3054  -14.3156    0.0000 O   0  0  0  0  0  0  0  0  0  0  0  0
    0.0000  -12.9770    0.0000 O   0  0  0  0  0  0  0  0  0  0  0  0
   28.8542   -3.5324    0.0000 C   0  0  0  0  0  0  0  0  0  0  0  0
   28.8914   -2.1566    0.0000 C   0  0  0  0  0  0  0  0  0  0  0  0
   10.0023  -11.3781    0.0000 C   0  0  0  0  0  0  0  0  0  0  0  0
   31.2340   -4.0530    0.0000 C   0  0  0  0  0  0  0  0  0  0  0  0
   26.5117   -3.5324    0.0000 C   0  0  0  0  0  0  0  0  0  0  0  0
   31.8289   -2.8259    0.0000 C   0  0  0  0  0  0  0  0  0  0  0  0
    9.9651  -10.0395    0.0000 C   0  0  0  0  0  0  0  0  0  0  0  0
   26.5117   -2.1938    0.0000 C   0  0  0  0  0  0  0  0  0  0  0  0
   24.1691   -4.5364    0.0000 C   0  0  0  0  0  0  0  0  0  0  0  0
   12.2705  -10.0023    0.0000 C   0  0  0  0  0  0  0  0  0  0  0  0
   12.2705  -11.3409    0.0000 C   0  0  0  0  0  0  0  0  0  0  0  0
    7.6969  -11.4153    0.0000 C   0  0  0  0  0  0  0  0  0  0  0  0
   29.9325   -1.3386    0.0000 C   0  0  0  0  0  0  0  0  0  0  0  0
   23.2767   -3.5324    0.0000 C   0  0  0  0  0  0  0  0  0  0  0  0
   27.6644   -4.2017    0.0000 C   0  0  0  0  0  0  0  0  0  0  0  0
    8.8496  -12.0474    0.0000 C   0  0  0  0  0  0  0  0  0  0  0  0
   22.3472   -5.9865    0.0000 C   0  0  0  0  0  0  0  0  0  0  0  0
   21.4919   -4.9454    0.0000 C   0  0  0  0  0  0  0  0  0  0  0  0
    7.6598  -10.0767    0.0000 C   0  0  0  0  0  0  0  0  0  0  0  0
   31.2340   -1.6361    0.0000 C   0  0  0  0  0  0  0  0  0  0  0  0
   11.0806   -9.3702    0.0000 C   0  0  0  0  0  0  0  0  0  0  0  0
   32.0148   -5.1685    0.0000 C   0  0  0  0  0  0  0  0  0  0  0  0
   33.9112   -3.8299    0.0000 C   0  0  0  0  0  0  0  0  0  0  0  0
   23.6486   -5.8006    0.0000 C   0  0  0  0  0  0  0  0  0  0  0  0
   14.5758   -9.4817    0.0000 C   0  0  0  0  0  0  0  0  0  0  0  0
   33.3534   -5.0569    0.0000 C   0  0  0  0  0  0  0  0  0  0  0  0
   15.1708  -10.6716    0.0000 C   0  0  0  0  0  0  0  0  0  0  0  0
   19.6328   -7.2879    0.0000 C   0  0  0  0  0  0  0  0  0  0  0  0
   20.8226   -7.8829    0.0000 C   0  0  0  0  0  0  0  0  0  0  0  0
   25.5449   -1.2642    0.0000 C   0  0  0  0  0  0  0  0  0  0  0  0
   20.1533   -4.9454    0.0000 C   0  0  0  0  0  0  0  0  0  0  0  0
   17.4761   -8.6637    0.0000 C   0  0  0  0  0  0  0  0  0  0  0  0
   13.3116  -12.1217    0.0000 C   0  0  0  0  0  0  0  0  0  0  0  0
   23.2767   -2.1938    0.0000 C   0  0  0  0  0  0  0  0  0  0  0  0
   17.6249   -9.9651    0.0000 C   0  0  0  0  0  0  0  0  0  0  0  0
   24.2063   -1.2642    0.0000 C   0  0  0  0  0  0  0  0  0  0  0  0
   19.3353   -5.9865    0.0000 C   0  0  0  0  0  0  0  0  0  0  0  0
   14.5758  -11.8615    0.0000 C   0  0  0  0  0  0  0  0  0  0  0  0
    6.6186   -9.2586    0.0000 C   0  0  0  0  0  0  0  0  0  0  0  0
   15.0220   -8.2919    0.0000 C   0  0  0  0  0  0  0  0  0  0  0  0
    5.3916  -11.9730    0.0000 C   0  0  0  0  0  0  0  0  0  0  0  0
   34.8036   -4.8710    0.0000 C   0  0  0  0  0  0  0  0  0  0  0  0
   29.6351    0.0000    0.0000 C   0  0  0  0  0  0  0  0  0  0  0  0
   20.8226   -3.7927    0.0000 C   0  0  0  0  0  0  0  0  0  0  0  0
   16.2863   -7.8829    0.0000 C   0  0  0  0  0  0  0  0  0  0  0  0
   31.4199   -6.3583    0.0000 C   0  0  0  0  0  0  0  0  0  0  0  0
   21.1945   -9.2586    0.0000 C   0  0  0  0  0  0  0  0  0  0  0  0
   36.0306   -4.3504    0.0000 C   0  0  0  0  0  0  0  0  0  0  0  0
   34.3202   -5.9865    0.0000 C   0  0  0  0  0  0  0  0  0  0  0  0
    5.3544   -9.5933    0.0000 C   0  0  0  0  0  0  0  0  0  0  0  0
   18.4801  -10.6716    0.0000 C   0  0  0  0  0  0  0  0  0  0  0  0
   35.9190   -3.0118    0.0000 C   0  0  0  0  0  0  0  0  0  0  0  0
    4.7966  -10.7832    0.0000 C   0  0  0  0  0  0  0  0  0  0  0  0
   23.6858    0.0000    0.0000 C   0  0  0  0  0  0  0  0  0  0  0  0
    4.5735  -12.9770    0.0000 C   0  0  0  0  0  0  0  0  0  0  0  0
   20.5624  -10.3370    0.0000 C   0  0  0  0  0  0  0  0  0  0  0  0
   19.4840  -10.8575    0.0000 C   0  0  0  0  0  0  0  0  0  0  0  0
    3.4209  -12.3448    0.0000 C   0  0  0  0  0  0  0  0  0  0  0  0
    2.3054  -12.9770    0.0000 C   0  0  0  0  0  0  0  0  0  0  0  0
    1.1527  -12.3448    0.0000 C   0  0  0  0  0  0  0  0  0  0  0  0
   28.8542   -4.9082    0.0000 H   0  0  0  0  0  0  0  0  0  0  0  0
   28.8914   -0.8180    0.0000 H   0  0  0  0  0  0  0  0  0  0  0  0
   10.0023  -12.6795    0.0000 H   0  0  0  0  0  0  0  0  0  0  0  0
   30.5647   -5.2057    0.0000 H   0  0  0  0  0  0  0  0  0  0  0  0
   26.5117   -4.9082    0.0000 H   0  0  0  0  0  0  0  0  0  0  0  0
   32.4982   -1.6732    0.0000 H   0  0  0  0  0  0  0  0  0  0  0  0
    9.9651   -8.7009    0.0000 H   0  0  0  0  0  0  0  0  0  0  0  0
   26.5117   -0.8552    0.0000 H   0  0  0  0  0  0  0  0  0  0  0  0
   25.0987   -5.5031    0.0000 H   0  0  0  0  0  0  0  0  0  0  0  0
   12.2705   -8.6637    0.0000 H   0  0  0  0  0  0  0  0  0  0  0  0
   12.2705  -12.6423    0.0000 H   0  0  0  0  0  0  0  0  0  0  0  0
    7.6969  -12.7167    0.0000 H   0  0  0  0  0  0  0  0  0  0  0  0
   22.3100   -2.6028    0.0000 H   0  0  0  0  0  0  0  0  0  0  0  0
   23.0165   -7.1392    0.0000 H   0  0  0  0  0  0  0  0  0  0  0  0
    7.6598   -8.7381    0.0000 H   0  0  0  0  0  0  0  0  0  0  0  0
   14.2412   -8.2175    0.0000 H   0  0  0  0  0  0  0  0  0  0  0  0
   15.5054  -11.9730    0.0000 H   0  0  0  0  0  0  0  0  0  0  0  0
   18.6660   -6.3583    0.0000 H   0  0  0  0  0  0  0  0  0  0  0  0
   21.9753   -8.5522    0.0000 H   0  0  0  0  0  0  0  0  0  0  0  0
   17.1415   -7.3995    0.0000 H   0  0  0  0  0  0  0  0  0  0  0  0
   17.6249  -11.3037    0.0000 H   0  0  0  0  0  0  0  0  0  0  0  0
    5.7262  -13.2372    0.0000 H   0  0  0  0  0  0  0  0  0  0  0  0
  1 20  1  0  0  0  0
  1 23  1  0  0  0  0
  2 21  1  0  0  0  0
  2 27  1  0  0  0  0
  3 24  1  0  0  0  0
  3 28  1  0  0  0  0
  4 22  1  0  0  0  0
  4 30  1  0  0  0  0
  5 26  1  0  0  0  0
  5 38  1  0  0  0  0
  6 25  1  0  0  0  0
  6 42  1  0  0  0  0
  7 33  1  0  0  0  0
  7 37  1  0  0  0  0
  8 29  1  0  0  0  0
  8 44  1  0  0  0  0
  9 36  1  0  0  0  0
  9 48  1  0  0  0  0
 10 31  1  0  0  0  0
 10 60  1  0  0  0  0
 11 46  1  0  0  0  0
 11 54  1  0  0  0  0
 12 47  1  0  0  0  0
 12 51  1  0  0  0  0
 42 13  1  1  0  0  0
 13 71  1  0  0  0  0
 35 14  1  6  0  0  0
 39 15  1  6  0  0  0
 50 16  1  1  0  0  0
 67 17  1  1  0  0  0
 78 18  1  6  0  0  0
 19 79  1  0  0  0  0
 20 21  1  0  0  0  0
 20 34  1  0  0  0  0
 20 80  1  6  0  0  0
 21 32  1  0  0  0  0
 21 81  1  1  0  0  0
 22 26  1  0  0  0  0
 22 35  1  0  0  0  0
 22 82  1  6  0  0  0
 23 25  1  0  0  0  0
 23 41  1  0  0  0  0
 23 83  1  6  0  0  0
 24 27  1  0  0  0  0
 24 34  1  0  0  0  0
 24 84  1  6  0  0  0
 25 39  1  0  0  0  0
 25 85  1  1  0  0  0
 26 40  1  0  0  0  0
 26 86  1  1  0  0  0
 27 49  1  0  0  0  0
 27 87  1  1  0  0  0
 28 33  1  0  0  0  0
 28 43  1  0  0  0  0
 28 88  1  6  0  0  0
 29 30  1  0  0  0  0
 29 40  1  0  0  0  0
 29 89  1  1  0  0  0
 30 52  1  0  0  0  0
 30 90  1  6  0  0  0
 31 35  1  0  0  0  0
 31 38  1  0  0  0  0
 31 91  1  6  0  0  0
 32 39  1  0  0  0  0
 32 62  1  1  0  0  0
 33 53  1  0  0  0  0
 33 92  1  1  0  0  0
 36 37  1  0  0  0  0
 36 43  1  0  0  0  0
 36 93  1  6  0  0  0
 37 50  1  0  0  0  0
 37 63  1  1  0  0  0
 38 58  1  0  0  0  0
 38 94  1  1  0  0  0
 41 45  1  0  0  0  0
 41 65  1  6  0  0  0
 42 45  1  0  0  0  0
 42 61  1  0  0  0  0
 44 46  1  0  0  0  0
 44 59  1  0  0  0  0
 44 95  1  1  0  0  0
 45 68  1  1  0  0  0
 46 57  1  0  0  0  0
 46 96  1  6  0  0  0
 47 48  1  0  0  0  0
 47 56  1  0  0  0  0
 47 97  1  1  0  0  0
 48 66  1  0  0  0  0
 48 98  1  6  0  0  0
 49 55  1  0  0  0  0
 50 56  1  0  0  0  0
 51 54  1  0  0  0  0
 51 64  1  0  0  0  0
 51 99  1  1  0  0  0
 52 57  2  0  0  0  0
 53 55  1  0  0  0  0
 54 70  1  0  0  0  0
 54100  1  6  0  0  0
 55 73  1  6  0  0  0
 58 69  1  0  0  0  0
 59 64  2  0  0  0  0
 60 72  1  0  0  0  0
 60 74  1  0  0  0  0
 60101  1  6  0  0  0
 61 67  1  0  0  0  0
 66 75  1  0  0  0  0
 67 71  1  0  0  0  0
 69 72  2  0  0  0  0
 70 76  1  0  0  0  0
 74 77  2  0  0  0  0
 75 76  2  0  0  0  0
 77 78  1  0  0  0  0
 78 79  1  0  0  0  0
M  END
